/*--------------------------------*- C++ -*----------------------------------*\
  =========                 |
  \\      /  F ield         | OpenFOAM: The Open Source CFD Toolbox
   \\    /   O peration     | Website:  https://openfoam.org
    \\  /    A nd           | Version:  7
     \\/     M anipulation  |
\*---------------------------------------------------------------------------*/
FoamFile
{
    version     2.0;
    format      ascii;
    class       polyBoundaryMesh;
    location    "constant/polyMesh";
    object      boundary;
}
// * * * * * * * * * * * * * * * * * * * * * * * * * * * * * * * * * * * * * //

5
(
    inlet
    {
        type            mappedPatch;
        inGroups        List<word> 1(mappedPatch);
        nFaces          70;
        startFace       208;
        sampleMode      nearestCell;
        sampleRegion    region0;
        offsetMode      uniform;
        offset          (2 0 0);
    }
    outlet
    {
        type            patch;
        nFaces          70;
        startFace       278;
    }
    fixedWalls-bottom
    {
        type            wall;
        inGroups        List<word> 1(wall);
        nFaces          2;
        startFace       348;
    }
    fixedWalls-top
    {
        type            wall;
        inGroups        List<word> 1(wall);
        nFaces          2;
        startFace       350;
    }
    frontAndBack
    {
        type            empty;
        inGroups        List<word> 1(empty);
        nFaces          280;
        startFace       352;
    }
)

// ************************************************************************* //
