/*--------------------------------*- C++ -*----------------------------------*\
  =========                 |
  \\      /  F ield         | OpenFOAM: The Open Source CFD Toolbox
   \\    /   O peration     | Website:  https://openfoam.org
    \\  /    A nd           | Version:  7  
     \\/     M anipulation  |
\*---------------------------------------------------------------------------*/
FoamFile
{
    version     2.0;
    format      ascii;
    class       dictionary;
    object      blockMeshDict;
}
// * * * * * * * * * * * * * * * * * * * * * * * * * * * * * * * * * * * * * //

vertices
(
    (0   0  -0.5)   //0
    (2   0  -0.5)   //1

    (2  0.2 -0.5)   //2
    (0  0.2 -0.5)   //3
//
    (0   0   0.5)   //4
    (2   0   0.5)   //5

    (2  0.2  0.5)   //6
    (0  0.2  0.5)   //7
);

blocks
(
    hex (0 1 2 3 4 5 6 7) (2 70 1) simpleGrading (
        1
        (
            (0.5 0.5 10)
            (0.5 0.5  0.1)
        )
        1)
);

edges
(
);

boundary
(
    inlet
    {
        type            mappedPatch;
        sampleRegion    region0;
        sampleMode      nearestCell;
        offset          (2 0 0);
        faces
        (
            (0 3 7 4)
        );
    }
    outlet
    {
        type patch;
        faces
        (
            (2 1 5 6)
        );
    } 
    fixedWalls-bottom
    {
        type wall;
        faces
        (
            (3 2 6 7)
        );
    }
    fixedWalls-top
    {
        type wall;
        faces
        (
            (0 4 5 1)
        );
    }

    frontAndBack //openFoam omits using this face as its type is empty
    {
        type empty;
	faces
	(
	 (0 1 2 3)
	 (7 6 5 4)
	);
    }
);

mergePatchPairs
(
);

// ************************************************************************* //
