/*--------------------------------*- C++ -*----------------------------------*\ 
| =========                 |                                                 |
| \      /  F ield         | OpenFOAM: The Open Source CFD Toolbox           |
|  \    /   O peration     | Version:  6                                   |
|   \  /    A nd           | Web:      www.OpenFOAM.com                      |
|    \/     M anipulation  |                                                 |
\*---------------------------------------------------------------------------*/
FoamFile
{
    version     2.0;
    format      ascii;
    class       dictionary;
    object      blockMeshDict;
}
// * * * * * * * * * * * * * * * * * * * * * * * * * * * * * * * * * * * * * //
convertToMeters 1;
vertices
(
	// vertex ID=0; name=vLE_z0_2
	name vLE_z0_2 (-29.990386909923693	0.7596027543666279	0.0)
	// vertex ID=1; name=vLE_z0_1
	name vLE_z0_1 (-0.19993088646615798	0.005460914629110854	0.0)
	// vertex ID=2; name=vSS1_z0_1
	name vSS1_z0_1 (-0.14300451361597408	0.14676110303617357	0.0)
	// vertex ID=3; name=vSS1_z0_2
	name vSS1_z0_2 (-15.869827377037074	25.470071766194152	0.0)
	// vertex ID=4; name=vLE_z1_2
	name vLE_z1_2 (-29.990386909923693	0.7596027543666279	1.0)
	// vertex ID=5; name=vLE_z1_1
	name vLE_z1_1 (-0.19993088646615798	0.005460914629110854	1.0)
	// vertex ID=6; name=vSS1_z1_1
	name vSS1_z1_1 (-0.14300451361597408	0.14676110303617357	1.0)
	// vertex ID=7; name=vSS1_z1_2
	name vSS1_z1_2 (-15.869827377037074	25.470071766194152	1.0)
	// vertex ID=8; name=vSS2_z0_1
	name vSS2_z0_1 (0.13575366800393612	0.25321165476349006	0.0)
	// vertex ID=9; name=vSS2_z0_2
	name vSS2_z0_2 (-2.7623606994095833	29.91195291452351	0.0)
	// vertex ID=10; name=vSS2_z1_1
	name vSS2_z1_1 (0.13575366800393612	0.25321165476349006	1.0)
	// vertex ID=11; name=vSS2_z1_2
	name vSS2_z1_2 (-2.7623606994095833	29.91195291452351	1.0)
	// vertex ID=12; name=vSS3_z0_1
	name vSS3_z0_1 (0.9116476039874638	0.21565974483783315	0.0)
	// vertex ID=13; name=vSS3_z0_2
	name vSS3_z0_2 (0.9116476039874638	29.91195291452351	0.0)
	// vertex ID=14; name=vSS3_z1_1
	name vSS3_z1_1 (0.9116476039874638	0.21565974483783315	1.0)
	// vertex ID=15; name=vSS3_z1_2
	name vSS3_z1_2 (0.9116476039874638	29.91195291452351	1.0)
	// vertex ID=16; name=vTET_z0_1
	name vTET_z0_1 (1.027489652587053	0.20060178949379318	0.0)
	// vertex ID=17; name=vTET_z0_2
	name vTET_z0_2 (1.2875404104385961	29.91195291452351	0.0)
	// vertex ID=18; name=vTET_z1_1
	name vTET_z1_1 (1.027489652587053	0.20060178949379318	1.0)
	// vertex ID=19; name=vTET_z1_2
	name vTET_z1_2 (1.2875404104385961	29.91195291452351	1.0)
	// vertex ID=20; name=vWT_z0_1
	name vWT_z0_1 (1.75	0.3068798257200491	0.0)
	// vertex ID=21; name=vWT_z0_2
	name vWT_z0_2 (3.3075390894371806	29.91195291452351	0.0)
	// vertex ID=22; name=vWT_z1_1
	name vWT_z1_1 (1.75	0.3068798257200491	1.0)
	// vertex ID=23; name=vWT_z1_2
	name vWT_z1_2 (3.3075390894371806	29.91195291452351	1.0)
	// vertex ID=24; name=vOUTT_z0_1
	name vOUTT_z0_1 (51.0	10.070279536057427	0.0)
	// vertex ID=25; name=vOUTT_z0_2
	name vOUTT_z0_2 (51.0	30.0025	0.0)
	// vertex ID=26; name=vOUTT_z1_1
	name vOUTT_z1_1 (51.0	10.070279536057427	1.0)
	// vertex ID=27; name=vOUTT_z1_2
	name vOUTT_z1_2 (51.0	30.0025	1.0)
	// vertex ID=28; name=vPS1_z0_2
	name vPS1_z0_2 (-15.869827377037074	-25.470071766194152	0.0)
	// vertex ID=29; name=vPS1_z0_1
	name vPS1_z0_1 (-0.14300451361597408	-0.14676110303617357	0.0)
	// vertex ID=30; name=vPS1_z1_2
	name vPS1_z1_2 (-15.869827377037074	-25.470071766194152	1.0)
	// vertex ID=31; name=vPS1_z1_1
	name vPS1_z1_1 (-0.14300451361597408	-0.14676110303617357	1.0)
	// vertex ID=32; name=vPS2_z0_2
	name vPS2_z0_2 (-2.7623606994095833	-29.91195291452351	0.0)
	// vertex ID=33; name=vPS2_z0_1
	name vPS2_z0_1 (0.13575366800393612	-0.25321165476349006	0.0)
	// vertex ID=34; name=vPS2_z1_2
	name vPS2_z1_2 (-2.7623606994095833	-29.91195291452351	1.0)
	// vertex ID=35; name=vPS2_z1_1
	name vPS2_z1_1 (0.13575366800393612	-0.25321165476349006	1.0)
	// vertex ID=36; name=vPS3_z0_2
	name vPS3_z0_2 (0.9116476039874638	-29.91195291452351	0.0)
	// vertex ID=37; name=vPS3_z0_1
	name vPS3_z0_1 (0.9116476039874638	-0.21565974483783315	0.0)
	// vertex ID=38; name=vPS3_z1_2
	name vPS3_z1_2 (0.9116476039874638	-29.91195291452351	1.0)
	// vertex ID=39; name=vPS3_z1_1
	name vPS3_z1_1 (0.9116476039874638	-0.21565974483783315	1.0)
	// vertex ID=40; name=vTEB_z0_2
	name vTEB_z0_2 (1.2874671437705092	-29.91195291452351	0.0)
	// vertex ID=41; name=vTEB_z0_1
	name vTEB_z0_1 (1.027416385918966	-0.2006119425555722	0.0)
	// vertex ID=42; name=vTEB_z1_2
	name vTEB_z1_2 (1.2874671437705092	-29.91195291452351	1.0)
	// vertex ID=43; name=vTEB_z1_1
	name vTEB_z1_1 (1.027416385918966	-0.2006119425555722	1.0)
	// vertex ID=44; name=vWB_z0_2
	name vWB_z0_2 (3.3075390894371806	-29.91195291452351	0.0)
	// vertex ID=45; name=vWB_z0_1
	name vWB_z0_1 (1.75	-0.24175196718220787	0.0)
	// vertex ID=46; name=vWB_z1_2
	name vWB_z1_2 (3.3075390894371806	-29.91195291452351	1.0)
	// vertex ID=47; name=vWB_z1_1
	name vWB_z1_1 (1.75	-0.24175196718220787	1.0)
	// vertex ID=48; name=vOUTB_z0_2
	name vOUTB_z0_2 (51.0	-30.0025	0.0)
	// vertex ID=49; name=vOUTB_z0_1
	name vOUTB_z0_1 (51.0	-4.59864630720074	0.0)
	// vertex ID=50; name=vOUTB_z1_2
	name vOUTB_z1_2 (51.0	-30.0025	1.0)
	// vertex ID=51; name=vOUTB_z1_1
	name vOUTB_z1_1 (51.0	-4.59864630720074	1.0)
	// vertex ID=52; name=vLE_z0
	name vLE_z0 (5.06e-06	0.00039956	0.0)
	// vertex ID=53; name=vSS1_z0
	name vSS1_z0 (0.00563574	0.01294752	0.0)
	// vertex ID=54; name=vLE_z1
	name vLE_z1 (5.06e-06	0.00039956	1.0)
	// vertex ID=55; name=vSS1_z1
	name vSS1_z1 (0.00563574	0.01294752	1.0)
	// vertex ID=56; name=vSS2_z0
	name vSS2_z0 (0.1552041	0.0541597	0.0)
	// vertex ID=57; name=vSS2_z1
	name vSS2_z1 (0.1552041	0.0541597	1.0)
	// vertex ID=58; name=vSS3_z0
	name vSS3_z0 (0.887528	0.01711946	0.0)
	// vertex ID=59; name=vSS3_z1
	name vSS3_z1 (0.887528	0.01711946	1.0)
	// vertex ID=60; name=vTET_z0
	name vTET_z0 (1.0	0.0025	0.0)
	// vertex ID=61; name=vTET_z1
	name vTET_z1 (1.0	0.0025	1.0)
	// vertex ID=62; name=vWT_z0
	name vWT_z0 (1.75	0.0025	0.0)
	// vertex ID=63; name=vWT_z1
	name vWT_z1 (1.75	0.0025	1.0)
	// vertex ID=64; name=vOUTT_z0
	name vOUTT_z0 (51.0	3.0160043137742054	0.0)
	// vertex ID=65; name=vOUTT_z1
	name vOUTT_z1 (51.0	3.0160043137742054	1.0)
	// vertex ID=66; name=vPS1_z0
	name vPS1_z0 (0.00563574	-0.01294752	0.0)
	// vertex ID=67; name=vPS1_z1
	name vPS1_z1 (0.00563574	-0.01294752	1.0)
	// vertex ID=68; name=vPS2_z0
	name vPS2_z0 (0.1552041	-0.0541597	0.0)
	// vertex ID=69; name=vPS2_z1
	name vPS2_z1 (0.1552041	-0.0541597	1.0)
	// vertex ID=70; name=vPS3_z0
	name vPS3_z0 (0.887528	-0.01711946	0.0)
	// vertex ID=71; name=vPS3_z1
	name vPS3_z1 (0.887528	-0.01711946	1.0)
	// vertex ID=72; name=vTEB_z0
	name vTEB_z0 (1.0	-0.0025	0.0)
	// vertex ID=73; name=vTEB_z1
	name vTEB_z1 (1.0	-0.0025	1.0)
	// vertex ID=74; name=vWB_z0
	name vWB_z0 (1.75	-0.0025	0.0)
	// vertex ID=75; name=vWB_z1
	name vWB_z1 (1.75	-0.0025	1.0)
	// vertex ID=76; name=vOUTB_z0
	name vOUTB_z0 (51.0	1.8211004622357558	0.0)
	// vertex ID=77; name=vOUTB_z1
	name vOUTB_z1 (51.0	1.8211004622357558	1.0)
);
edges
(
	// edge ID=0;	name=erLE_z0_2; Start Vertex=vLE_z0_1 (ID=1); Last Vertex=vLE_z0_2 (ID=0)
	spline 1 0 () 
	// edge ID=1;	name=erSS1_z0_2; Start Vertex=vSS1_z0_1 (ID=2); Last Vertex=vSS1_z0_2 (ID=3)
	spline 2 3 () 
	// edge ID=2;	name=erSS1_z1_2; Start Vertex=vSS1_z1_1 (ID=6); Last Vertex=vSS1_z1_2 (ID=7)
	spline 6 7 () 
	// edge ID=3;	name=erLE_z1_2; Start Vertex=vLE_z1_1 (ID=5); Last Vertex=vLE_z1_2 (ID=4)
	spline 5 4 () 
	// edge ID=4;	name=eSS1_z0_2; Start Vertex=vLE_z0_2 (ID=0); Last Vertex=vSS1_z0_2 (ID=3)
	spline 0 3 ( (-29.912419516896254 2.2912712623390346 0.0) (-29.75232015217489 3.848020655283774 0.0) (-29.507787534554428 5.413502585587162 0.0) (-29.1808935303907 6.964291072561985 0.0) (-28.77578114180685 8.484883131132836 0.0) (-28.299328629376667 9.960028440021386 0.0) (-27.759071777025824 11.380058047133607 0.0) (-27.164658611469992 12.734708060401685 0.0) (-26.526593534337994 14.016162462148424 0.0) (-25.854616604923017 15.220870267992824 0.0) (-25.15880121561411 16.346109685690777 0.0) (-24.44738937351281 17.392855073853383 0.0) (-23.728028006252718 18.362832426319954 0.0) (-23.00735876982215 19.25881302076872 0.0) (-22.29040230239611 20.084984975426035 0.0) (-21.581683145420808 20.84534528476197 0.0) (-20.88413633849289 21.54482876167869 0.0) (-20.200326509215795 22.18791071170512 0.0) (-19.5315284557619 22.77951197259845 0.0) (-18.879120929730558 23.323724734229586 0.0) (-18.243647898822335 23.824726586465328 0.0) (-17.625106665718658 24.286523430285712 0.0) (-17.023545985430978 24.71255132739857 0.0) (-16.438589986205415 25.10609853362514 0.0)) 
	// edge ID=5;	name=eSS1_z0_1; Start Vertex=vLE_z0_1 (ID=1); Last Vertex=vSS1_z0_1 (ID=2)
	spline 1 2 ( (-0.19937040697930836 0.016471800482260233 0.0) (-0.19821946901449927 0.02766297443522516 0.0) (-0.19646026723036286 0.03892410650391442 0.0) (-0.1941055214026047 0.05009401708374657 0.0) (-0.19118192774537898 0.06106643254088557 0.0) (-0.18773436786251113 0.07173899866680924 0.0) (-0.18381235518017217 0.08204637171422405 0.0) (-0.1794798125431333 0.09191860593601124 0.0) (-0.17480674942891997 0.10130230321432283 0.0) (-0.16985803996615348 0.1101728168532855 0.0) (-0.16470072090409404 0.11851157443793851 0.0) (-0.15938973895675207 0.12632462469235586 0.0) (-0.15397585510835146 0.13362330537546635 0.0) (-0.1485031285321477 0.14042609167179146 0.0)) 
	// edge ID=6;	name=eSS1_z1_1; Start Vertex=vLE_z1_1 (ID=5); Last Vertex=vSS1_z1_1 (ID=6)
	spline 5 6 ( (-0.19937040697930836 0.016471800482260233 1.0) (-0.19821946901449927 0.02766297443522516 1.0) (-0.19646026723036286 0.03892410650391442 1.0) (-0.1941055214026047 0.05009401708374657 1.0) (-0.19118192774537898 0.06106643254088557 1.0) (-0.18773436786251113 0.07173899866680924 1.0) (-0.18381235518017217 0.08204637171422405 1.0) (-0.1794798125431333 0.09191860593601124 1.0) (-0.17480674942891997 0.10130230321432283 1.0) (-0.16985803996615348 0.1101728168532855 1.0) (-0.16470072090409404 0.11851157443793851 1.0) (-0.15938973895675207 0.12632462469235586 1.0) (-0.15397585510835146 0.13362330537546635 1.0) (-0.1485031285321477 0.14042609167179146 1.0)) 
	// edge ID=7;	name=eSS1_z1_2; Start Vertex=vLE_z1_2 (ID=4); Last Vertex=vSS1_z1_2 (ID=7)
	spline 4 7 ( (-29.912419516896254 2.2912712623390346 1.0) (-29.75232015217489 3.848020655283774 1.0) (-29.507787534554428 5.413502585587162 1.0) (-29.1808935303907 6.964291072561985 1.0) (-28.77578114180685 8.484883131132836 1.0) (-28.299328629376667 9.960028440021386 1.0) (-27.759071777025824 11.380058047133607 1.0) (-27.164658611469992 12.734708060401685 1.0) (-26.526593534337994 14.016162462148424 1.0) (-25.854616604923017 15.220870267992824 1.0) (-25.15880121561411 16.346109685690777 1.0) (-24.44738937351281 17.392855073853383 1.0) (-23.728028006252718 18.362832426319954 1.0) (-23.00735876982215 19.25881302076872 1.0) (-22.29040230239611 20.084984975426035 1.0) (-21.581683145420808 20.84534528476197 1.0) (-20.88413633849289 21.54482876167869 1.0) (-20.200326509215795 22.18791071170512 1.0) (-19.5315284557619 22.77951197259845 1.0) (-18.879120929730558 23.323724734229586 1.0) (-18.243647898822335 23.824726586465328 1.0) (-17.625106665718658 24.286523430285712 1.0) (-17.023545985430978 24.71255132739857 1.0) (-16.438589986205415 25.10609853362514 1.0)) 
	// edge ID=8;	name=zextrvLE_z0_2; Start Vertex=vLE_z0_2 (ID=0); Last Vertex=vLE_z1_2 (ID=4)
	spline 0 4 () 
	// edge ID=9;	name=zextrvLE_z0_1; Start Vertex=vLE_z0_1 (ID=1); Last Vertex=vLE_z1_1 (ID=5)
	spline 1 5 () 
	// edge ID=10;	name=zextrvSS1_z0_1; Start Vertex=vSS1_z0_1 (ID=2); Last Vertex=vSS1_z1_1 (ID=6)
	spline 2 6 () 
	// edge ID=11;	name=zextrvSS1_z0_2; Start Vertex=vSS1_z0_2 (ID=3); Last Vertex=vSS1_z1_2 (ID=7)
	spline 3 7 () 
	// edge ID=12;	name=erSS2_z0_2; Start Vertex=vSS2_z0_1 (ID=8); Last Vertex=vSS2_z0_2 (ID=9)
	spline 8 9 () 
	// edge ID=13;	name=erSS2_z1_2; Start Vertex=vSS2_z1_1 (ID=10); Last Vertex=vSS2_z1_2 (ID=11)
	spline 10 11 () 
	// edge ID=14;	name=eSS2_z0_2; Start Vertex=vSS1_z0_2 (ID=3); Last Vertex=vSS2_z0_2 (ID=9)
	spline 3 9 ( (-15.31648818911679 25.807250982849826 0.0) (-14.778064225925467 26.119942449628184 0.0) (-14.253720545484466 26.410379977569526 0.0) (-13.74286922846945 26.680424363643343 0.0) (-13.244453770675447 26.931978039741782 0.0) (-12.757962710176079 27.166480431111157 0.0) (-12.28266586062445 27.385334014704863 0.0) (-11.817846901406478 27.58979816709089 0.0) (-11.362728256375172 27.781036363968735 0.0) (-10.917043444616265 27.95989889773328 0.0) (-10.480089327786049 28.127334287565176 0.0) (-10.05149260614338 28.284084313194004 0.0) (-9.631118518238688 28.430750602257838 0.0) (-9.21860521951205 28.56796993808606 0.0) (-8.813963171321104 28.696214705934157 0.0) (-8.417267464773676 28.81591531925218 0.0) (-8.028659578529895 28.927466195710092 0.0) (-7.648481906601701 29.031195969963406 0.0) (-7.277165764269975 29.12741018666483 0.0) (-6.91512956816972 29.21642127875685 0.0) (-6.5628856266371445 29.29852284096763 0.0) (-6.220951981146092 29.374013586827672 0.0) (-5.889695531960441 29.44322830443836 0.0) (-5.569521137531319 29.50649183728845 0.0) (-5.260661270129833 29.56415862458528 0.0) (-4.963156659361225 29.616606257472874 0.0) (-4.677043892061973 29.66419570414537 0.0) (-4.4021745479587855 29.707299258211712 0.0) (-4.138239344863882 29.746289372794987 0.0) (-3.8848841850168743 29.78151746421264 0.0) (-3.6417408762301444 29.813309970519565 0.0) (-3.408449152175664 29.841967023900956 0.0) (-3.1844455364213373 29.86778802387251 0.0) (-2.9692141705942237 29.891039741887546 0.0)) 
	// edge ID=15;	name=eSS2_z0_1; Start Vertex=vSS1_z0_1 (ID=2); Last Vertex=vSS2_z0_1 (ID=8)
	spline 2 8 ( (-0.13750948856947204 0.15265536356507978 0.0) (-0.13203671638995262 0.15814221901119127 0.0) (-0.12660204299477198 0.16325212061136746 0.0) (-0.12121249690507935 0.16801855935065635 0.0) (-0.11587538246487039 0.17246955156153057 0.0) (-0.11059221032548223 0.17663382197643554 0.0) (-0.10536034010479106 0.18053893086857142 0.0) (-0.10017720623620653 0.18420875878265716 0.0) (-0.09503686597470276 0.18766617109083428 0.0) (-0.08993278284691383 0.19093161870796105 0.0) (-0.08485542326077859 0.1940246478856655 0.0) (-0.07979659150616979 0.19696174626418791 0.0) (-0.07474520830322977 0.19975887871713016 0.0) (-0.06969134452312968 0.20242960282428898 0.0) (-0.06462120213783633 0.20498768419827856 0.0) (-0.059523981001173856 0.20744384147407438 0.0) (-0.054386677804162994 0.20980847743136577 0.0) (-0.04919568634270985 0.21209102098060595 0.0) (-0.043936227175834494 0.21430012262645826 0.0) (-0.0385962924307751 0.21644223571822185 0.0) (-0.03316037711857367 0.21852428965043452 0.0) (-0.027614678507622538 0.22055154748796005 0.0) (-0.02194683512159127 0.22252804988171893 0.0) (-0.016143001396747007 0.22445764472057372 0.0) (-0.010192300542140695 0.22634258723956105 0.0) (-0.004085250165157844 0.22818429659501455 0.0) (0.002185659809800705 0.2299832963714006 0.0) (0.008624504089321992 0.23173900606642273 0.0) (0.015232112371533497 0.23345003564443217 0.0) (0.02200631107886853 0.23511444499171236 0.0) (0.028940963089085697 0.2367296717397842 0.0) (0.03602652565902605 0.2382928995788512 0.0) (0.043251374386930386 0.23980143349625574 0.0) (0.050601019349791214 0.24125261151525637 0.0) (0.058060202732467786 0.2426443066972352 0.0) (0.06561371327092516 0.24397497358315248 0.0) (0.07324596005292018 0.24524354196096915 0.0) (0.08094266501360808 0.24644964292141144 0.0) (0.08869143703424079 0.24759353441863324 0.0) (0.09648112743322083 0.24867591029475095 0.0) (0.10430187349179904 0.24969781440346378 0.0) (0.11214515031882892 0.25066060195933976 0.0) (0.12000478109052443 0.2515659808924834 0.0) (0.1278758608627052 0.2524157296792503 0.0)) 
	// edge ID=16;	name=eSS2_z1_1; Start Vertex=vSS1_z1_1 (ID=6); Last Vertex=vSS2_z1_1 (ID=10)
	spline 6 10 ( (-0.13750948856947204 0.15265536356507978 1.0) (-0.13203671638995262 0.15814221901119127 1.0) (-0.12660204299477198 0.16325212061136746 1.0) (-0.12121249690507935 0.16801855935065635 1.0) (-0.11587538246487039 0.17246955156153057 1.0) (-0.11059221032548223 0.17663382197643554 1.0) (-0.10536034010479106 0.18053893086857142 1.0) (-0.10017720623620653 0.18420875878265716 1.0) (-0.09503686597470276 0.18766617109083428 1.0) (-0.08993278284691383 0.19093161870796105 1.0) (-0.08485542326077859 0.1940246478856655 1.0) (-0.07979659150616979 0.19696174626418791 1.0) (-0.07474520830322977 0.19975887871713016 1.0) (-0.06969134452312968 0.20242960282428898 1.0) (-0.06462120213783633 0.20498768419827856 1.0) (-0.059523981001173856 0.20744384147407438 1.0) (-0.054386677804162994 0.20980847743136577 1.0) (-0.04919568634270985 0.21209102098060595 1.0) (-0.043936227175834494 0.21430012262645826 1.0) (-0.0385962924307751 0.21644223571822185 1.0) (-0.03316037711857367 0.21852428965043452 1.0) (-0.027614678507622538 0.22055154748796005 1.0) (-0.02194683512159127 0.22252804988171893 1.0) (-0.016143001396747007 0.22445764472057372 1.0) (-0.010192300542140695 0.22634258723956105 1.0) (-0.004085250165157844 0.22818429659501455 1.0) (0.002185659809800705 0.2299832963714006 1.0) (0.008624504089321992 0.23173900606642273 1.0) (0.015232112371533497 0.23345003564443217 1.0) (0.02200631107886853 0.23511444499171236 1.0) (0.028940963089085697 0.2367296717397842 1.0) (0.03602652565902605 0.2382928995788512 1.0) (0.043251374386930386 0.23980143349625574 1.0) (0.050601019349791214 0.24125261151525637 1.0) (0.058060202732467786 0.2426443066972352 1.0) (0.06561371327092516 0.24397497358315248 1.0) (0.07324596005292018 0.24524354196096915 1.0) (0.08094266501360808 0.24644964292141144 1.0) (0.08869143703424079 0.24759353441863324 1.0) (0.09648112743322083 0.24867591029475095 1.0) (0.10430187349179904 0.24969781440346378 1.0) (0.11214515031882892 0.25066060195933976 1.0) (0.12000478109052443 0.2515659808924834 1.0) (0.1278758608627052 0.2524157296792503 1.0)) 
	// edge ID=17;	name=eSS2_z1_2; Start Vertex=vSS1_z1_2 (ID=7); Last Vertex=vSS2_z1_2 (ID=11)
	spline 7 11 ( (-15.31648818911679 25.807250982849826 1.0) (-14.778064225925467 26.119942449628184 1.0) (-14.253720545484466 26.410379977569526 1.0) (-13.74286922846945 26.680424363643343 1.0) (-13.244453770675447 26.931978039741782 1.0) (-12.757962710176079 27.166480431111157 1.0) (-12.28266586062445 27.385334014704863 1.0) (-11.817846901406478 27.58979816709089 1.0) (-11.362728256375172 27.781036363968735 1.0) (-10.917043444616265 27.95989889773328 1.0) (-10.480089327786049 28.127334287565176 1.0) (-10.05149260614338 28.284084313194004 1.0) (-9.631118518238688 28.430750602257838 1.0) (-9.21860521951205 28.56796993808606 1.0) (-8.813963171321104 28.696214705934157 1.0) (-8.417267464773676 28.81591531925218 1.0) (-8.028659578529895 28.927466195710092 1.0) (-7.648481906601701 29.031195969963406 1.0) (-7.277165764269975 29.12741018666483 1.0) (-6.91512956816972 29.21642127875685 1.0) (-6.5628856266371445 29.29852284096763 1.0) (-6.220951981146092 29.374013586827672 1.0) (-5.889695531960441 29.44322830443836 1.0) (-5.569521137531319 29.50649183728845 1.0) (-5.260661270129833 29.56415862458528 1.0) (-4.963156659361225 29.616606257472874 1.0) (-4.677043892061973 29.66419570414537 1.0) (-4.4021745479587855 29.707299258211712 1.0) (-4.138239344863882 29.746289372794987 1.0) (-3.8848841850168743 29.78151746421264 1.0) (-3.6417408762301444 29.813309970519565 1.0) (-3.408449152175664 29.841967023900956 1.0) (-3.1844455364213373 29.86778802387251 1.0) (-2.9692141705942237 29.891039741887546 1.0)) 
	// edge ID=18;	name=zextrvSS2_z0_1; Start Vertex=vSS2_z0_1 (ID=8); Last Vertex=vSS2_z1_1 (ID=10)
	spline 8 10 () 
	// edge ID=19;	name=zextrvSS2_z0_2; Start Vertex=vSS2_z0_2 (ID=9); Last Vertex=vSS2_z1_2 (ID=11)
	spline 9 11 () 
	// edge ID=20;	name=erSS3_z0_2; Start Vertex=vSS3_z0_1 (ID=12); Last Vertex=vSS3_z0_2 (ID=13)
	spline 12 13 () 
	// edge ID=21;	name=erSS3_z1_2; Start Vertex=vSS3_z1_1 (ID=14); Last Vertex=vSS3_z1_2 (ID=15)
	spline 14 15 () 
	// edge ID=22;	name=eSS3_z0_2; Start Vertex=vSS2_z0_2 (ID=9); Last Vertex=vSS3_z0_2 (ID=13)
	spline 9 13 () 
	// edge ID=23;	name=eSS3_z0_1; Start Vertex=vSS2_z0_1 (ID=8); Last Vertex=vSS3_z0_1 (ID=12)
	spline 8 12 ( (0.14363471113584558 0.2539556236815312 0.0) (0.15151640726452842 0.25464953477762675 0.0) (0.15939711659687483 0.25529524998539177 0.0) (0.16727507380987172 0.2558945434492952 0.0) (0.17514902016254316 0.256449139491051 0.0) (0.18301821700980125 0.2569607130013864 0.0) (0.19088227011647707 0.2574308641726055 0.0) (0.19874036615282487 0.2578610724806913 0.0) (0.2065923676638381 0.2582528106582218 0.0) (0.2144383253788589 0.2586074340306488 0.0) (0.22227766762329662 0.25892623921296 0.0) (0.23011058177135937 0.2592104833561947 0.0) (0.23793731079318273 0.25946133708278973 0.0) (0.2457577039813528 0.2596799103404274 0.0) (0.25357153448282016 0.2598672656262387 0.0) (0.2613791997881893 0.26002443262998953 0.0) (0.26918062297014145 0.26015236822840265 0.0) (0.2769761151181638 0.2602520058373355 0.0) (0.2847654320538099 0.26032421496836766 0.0) (0.2925489552402368 0.2603698590774055 0.0) (0.3003270717084653 0.26038972067074256 0.0) (0.3080992012672957 0.2603845756013461 0.0) (0.3158658520920604 0.2603551869927155 0.0) (0.3236272701835728 0.26030223278876014 0.0) (0.3313832091321228 0.2602264219717108 0.0) (0.33913406833674525 0.2601283960784936 0.0) (0.3468796984163637 0.26000878403484234 0.0) (0.3546204520119437 0.25986820055199733 0.0) (0.36235625030553636 0.2597072206560225 0.0) (0.3700873740439644 0.25952640571371327 0.0) (0.3778139426806565 0.25932629385065825 0.0) (0.38553588732850563 0.2591074028982018 0.0) (0.39325311665885326 0.2588702488967622 0.0) (0.4009661165185813 0.2586153137941584 0.0) (0.40867509339082236 0.25834304032365946 0.0) (0.4163795066465306 0.25805390356296315 0.0) (0.4240799845759005 0.2577483451923039 0.0) (0.43177661138542656 0.2574267527709109 0.0) (0.4394692133476843 0.25708955875863243 0.0) (0.44715789849566895 0.25673714597913777 0.0) (0.45484290902373364 0.2563698957697661 0.0) (0.46252419962592123 0.25598816989366274 0.0) (0.4702019717285653 0.25559232921373964 0.0) (0.4778763505070456 0.25518269458878845 0.0) (0.4855474000286556 0.2547596068671313 0.0) (0.49321484620110617 0.25432338776908453 0.0) (0.5008792319723963 0.25387434711863044 0.0) (0.5085405918444571 0.25341274680575254 0.0) (0.5161985407855705 0.2529389164218947 0.0) (0.5238536190293351 0.2524531149204068 0.0) (0.5315058025530436 0.2519555929682731 0.0) (0.5391551066558578 0.25144662683088587 0.0) (0.5468017373183903 0.25092643460813496 0.0) (0.5544455200938297 0.2503952817001783 0.0) (0.5620866579688596 0.24985338293096407 0.0) (0.569725109677869 0.2493009714182537 0.0) (0.5773612424773678 0.2487382359688779 0.0) (0.5849950494654679 0.24816537074419615 0.0) (0.5926261481504845 0.2475826125393612 0.0) (0.600255031277172 0.2469901231448485 0.0) (0.6078819339050002 0.2463880540096485 0.0) (0.6155063560909898 0.2457766178239969 0.0) (0.6231289416314914 0.245155946962509 0.0) (0.6307493160951573 0.2445262040133867 0.0) (0.6383677134258511 0.24388755049736868 0.0) (0.6459842299688231 0.2432401079673767 0.0) (0.6535989335564243 0.24258401263248913 0.0) (0.661211765300859 0.241919393778361 0.0) (0.668822877757667 0.2412463688716796 0.0) (0.6764320776032573 0.24056506769155442 0.0) (0.6840399066385772 0.2398755710578712 0.0) (0.6916462057828984 0.239177964300471 0.0) (0.6992508800148779 0.2384723740693938 0.0) (0.7068540879605688 0.23775886395644247 0.0) (0.7144557792885451 0.23703753677871225 0.0) (0.7220562397751059 0.2363084315341258 0.0) (0.7296554992809351 0.23557162118191546 0.0) (0.7372534044919903 0.2348271764476703 0.0) (0.7448499413858086 0.23407516336263556 0.0) (0.7524455785565174 0.23331559972734733 0.0) (0.7600398564413776 0.23254854484286053 0.0) (0.7676330248437854 0.23177405707028004 0.0) (0.7752253139354268 0.2309921147938875 0.0) (0.7828167161377833 0.23020276091655498 0.0) (0.7904068302036501 0.2294060475468348 0.0) (0.7979963026932234 0.22860194848245863 0.0) (0.8055846978385764 0.2277904786674988 0.0) (0.8131720129029255 0.22697168999808795 0.0) (0.8207586573920922 0.2261455149829095 0.0) (0.8283442279119902 0.22531198681909453 0.0) (0.8359287085272579 0.22447111487115892 0.0) (0.8435123646839878 0.22362284492817774 0.0) (0.8510946345887563 0.22276720429643623 0.0) (0.8586755340256107 0.22190418670828435 0.0) (0.8662546814894723 0.22103378471409835 0.0) (0.8738312477894912 0.22015607369769638 0.0) (0.8814052780920438 0.21927102427040754 0.0) (0.8889756318203341 0.21837869518164238 0.0) (0.8965406277236142 0.2174792594663962 0.0) (0.9040987771041205 0.21657286256880418 0.0)) 
	// edge ID=24;	name=eSS3_z1_1; Start Vertex=vSS2_z1_1 (ID=10); Last Vertex=vSS3_z1_1 (ID=14)
	spline 10 14 ( (0.14363471113584558 0.2539556236815312 1.0) (0.15151640726452842 0.25464953477762675 1.0) (0.15939711659687483 0.25529524998539177 1.0) (0.16727507380987172 0.2558945434492952 1.0) (0.17514902016254316 0.256449139491051 1.0) (0.18301821700980125 0.2569607130013864 1.0) (0.19088227011647707 0.2574308641726055 1.0) (0.19874036615282487 0.2578610724806913 1.0) (0.2065923676638381 0.2582528106582218 1.0) (0.2144383253788589 0.2586074340306488 1.0) (0.22227766762329662 0.25892623921296 1.0) (0.23011058177135937 0.2592104833561947 1.0) (0.23793731079318273 0.25946133708278973 1.0) (0.2457577039813528 0.2596799103404274 1.0) (0.25357153448282016 0.2598672656262387 1.0) (0.2613791997881893 0.26002443262998953 1.0) (0.26918062297014145 0.26015236822840265 1.0) (0.2769761151181638 0.2602520058373355 1.0) (0.2847654320538099 0.26032421496836766 1.0) (0.2925489552402368 0.2603698590774055 1.0) (0.3003270717084653 0.26038972067074256 1.0) (0.3080992012672957 0.2603845756013461 1.0) (0.3158658520920604 0.2603551869927155 1.0) (0.3236272701835728 0.26030223278876014 1.0) (0.3313832091321228 0.2602264219717108 1.0) (0.33913406833674525 0.2601283960784936 1.0) (0.3468796984163637 0.26000878403484234 1.0) (0.3546204520119437 0.25986820055199733 1.0) (0.36235625030553636 0.2597072206560225 1.0) (0.3700873740439644 0.25952640571371327 1.0) (0.3778139426806565 0.25932629385065825 1.0) (0.38553588732850563 0.2591074028982018 1.0) (0.39325311665885326 0.2588702488967622 1.0) (0.4009661165185813 0.2586153137941584 1.0) (0.40867509339082236 0.25834304032365946 1.0) (0.4163795066465306 0.25805390356296315 1.0) (0.4240799845759005 0.2577483451923039 1.0) (0.43177661138542656 0.2574267527709109 1.0) (0.4394692133476843 0.25708955875863243 1.0) (0.44715789849566895 0.25673714597913777 1.0) (0.45484290902373364 0.2563698957697661 1.0) (0.46252419962592123 0.25598816989366274 1.0) (0.4702019717285653 0.25559232921373964 1.0) (0.4778763505070456 0.25518269458878845 1.0) (0.4855474000286556 0.2547596068671313 1.0) (0.49321484620110617 0.25432338776908453 1.0) (0.5008792319723963 0.25387434711863044 1.0) (0.5085405918444571 0.25341274680575254 1.0) (0.5161985407855705 0.2529389164218947 1.0) (0.5238536190293351 0.2524531149204068 1.0) (0.5315058025530436 0.2519555929682731 1.0) (0.5391551066558578 0.25144662683088587 1.0) (0.5468017373183903 0.25092643460813496 1.0) (0.5544455200938297 0.2503952817001783 1.0) (0.5620866579688596 0.24985338293096407 1.0) (0.569725109677869 0.2493009714182537 1.0) (0.5773612424773678 0.2487382359688779 1.0) (0.5849950494654679 0.24816537074419615 1.0) (0.5926261481504845 0.2475826125393612 1.0) (0.600255031277172 0.2469901231448485 1.0) (0.6078819339050002 0.2463880540096485 1.0) (0.6155063560909898 0.2457766178239969 1.0) (0.6231289416314914 0.245155946962509 1.0) (0.6307493160951573 0.2445262040133867 1.0) (0.6383677134258511 0.24388755049736868 1.0) (0.6459842299688231 0.2432401079673767 1.0) (0.6535989335564243 0.24258401263248913 1.0) (0.661211765300859 0.241919393778361 1.0) (0.668822877757667 0.2412463688716796 1.0) (0.6764320776032573 0.24056506769155442 1.0) (0.6840399066385772 0.2398755710578712 1.0) (0.6916462057828984 0.239177964300471 1.0) (0.6992508800148779 0.2384723740693938 1.0) (0.7068540879605688 0.23775886395644247 1.0) (0.7144557792885451 0.23703753677871225 1.0) (0.7220562397751059 0.2363084315341258 1.0) (0.7296554992809351 0.23557162118191546 1.0) (0.7372534044919903 0.2348271764476703 1.0) (0.7448499413858086 0.23407516336263556 1.0) (0.7524455785565174 0.23331559972734733 1.0) (0.7600398564413776 0.23254854484286053 1.0) (0.7676330248437854 0.23177405707028004 1.0) (0.7752253139354268 0.2309921147938875 1.0) (0.7828167161377833 0.23020276091655498 1.0) (0.7904068302036501 0.2294060475468348 1.0) (0.7979963026932234 0.22860194848245863 1.0) (0.8055846978385764 0.2277904786674988 1.0) (0.8131720129029255 0.22697168999808795 1.0) (0.8207586573920922 0.2261455149829095 1.0) (0.8283442279119902 0.22531198681909453 1.0) (0.8359287085272579 0.22447111487115892 1.0) (0.8435123646839878 0.22362284492817774 1.0) (0.8510946345887563 0.22276720429643623 1.0) (0.8586755340256107 0.22190418670828435 1.0) (0.8662546814894723 0.22103378471409835 1.0) (0.8738312477894912 0.22015607369769638 1.0) (0.8814052780920438 0.21927102427040754 1.0) (0.8889756318203341 0.21837869518164238 1.0) (0.8965406277236142 0.2174792594663962 1.0) (0.9040987771041205 0.21657286256880418 1.0)) 
	// edge ID=25;	name=eSS3_z1_2; Start Vertex=vSS2_z1_2 (ID=11); Last Vertex=vSS3_z1_2 (ID=15)
	spline 11 15 () 
	// edge ID=26;	name=zextrvSS3_z0_1; Start Vertex=vSS3_z0_1 (ID=12); Last Vertex=vSS3_z1_1 (ID=14)
	spline 12 14 () 
	// edge ID=27;	name=zextrvSS3_z0_2; Start Vertex=vSS3_z0_2 (ID=13); Last Vertex=vSS3_z1_2 (ID=15)
	spline 13 15 () 
	// edge ID=28;	name=erTET_z0_2; Start Vertex=vTET_z0_1 (ID=16); Last Vertex=vTET_z0_2 (ID=17)
	spline 16 17 () 
	// edge ID=29;	name=erTET_z1_2; Start Vertex=vTET_z1_1 (ID=18); Last Vertex=vTET_z1_2 (ID=19)